SUBCASE 1
ANALYSIS = STATICS
DISPLACEMENT = ALL
LOAD = 1
SPC = 1
BEGIN BULK
GRID           5         5.98956 2.97878 2.37488
GRID           1        -6.01203 2.98129 2.38556
GRID          20         5.98796 2.98057-2.38556
GRID          16        -6.01203 2.98307-2.36889
GRID           2        -3.03231 2.98067 2.38309
GRID           3        -0.03485 2.98004 2.38050
GRID           4         2.98794 2.97941 2.37773
GRID          31        -6.01202 2.98219-0.01063
GRID          17        -3.01668 2.98244-2.35892
GRID          18         7.37E-3 2.98180-2.35918
GRID          19         3.02235 2.98117-2.36370
GRID           6         5.98956 5.97878 2.37488
GRID          10        -6.01203 5.98129 2.38556
GRID          21         5.98796 5.98057-2.38556
GRID          25        -6.01203 5.98307-2.36889
GRID           9        -3.03231 5.98067 2.38309
GRID           8        -0.03485 5.98004 2.38050
GRID           7         2.98794 5.97941 2.37773
GRID          32        -6.01202 5.98219-0.01063
GRID          24        -3.01668 5.98243-2.35892
$ ... 85 like lines cut
CQUAD4         1       1       5      35      36      34
CQUAD4         2       1      34      36      37       6
CQUAD4         3       1      35       4      38      36
CQUAD4         4       1      36      38       7      37
CQUAD4         5       1       4      39      40      38
CQUAD4         6       1      38      40      41       7
CQUAD4         7       1      39       3      42      40
CQUAD4         8       1      40      42       8      41
CQUAD4         9       1       3      43      44      42
CQUAD4        10       1      42      44      45       8
CQUAD4        11       1      43       2      46      44
CQUAD4        12       1      44      46       9      45
CQUAD4        13       1       2      47      48      46
CQUAD4        14       1      46      48      49       9
CQUAD4        15       1      47       1      50      48
CQUAD4        16       1      48      50      10      49
CQUAD4        17       1      20      52      53      51
CQUAD4        18       1      51      53      54      21
CQUAD4        19       1      52      19      55      53
CQUAD4        20       1      53      55      22      54
$ ... 60 like lines cut
PSHELL         1       1 0.37500       1 1.00000
MAT1           1 1.00E+7         0.33000 0.10100
SPC,1,5,123456,0.0
SPC,1,35,123456,0.0
SPC,1,34,123456,0.0
SPC,1,36,123456,0.0
PLOAD4,1,54,100.,,,,,,
+,0,1.0,0.0,0.0
ENDDATA